Version 4
SHEET 1 2916 680
WIRE 384 -144 384 -192
WIRE 1056 -144 1056 -208
WIRE 1056 -144 896 -144
WIRE 1216 -144 1056 -144
WIRE 1792 -144 1792 -208
WIRE 1792 -144 1632 -144
WIRE 1952 -144 1792 -144
WIRE 2528 -144 2528 -208
WIRE 2528 -144 2368 -144
WIRE 2688 -144 2528 -144
WIRE 896 -64 896 -144
WIRE 1216 -64 1216 -144
WIRE 1632 -64 1632 -144
WIRE 1952 -64 1952 -144
WIRE 2368 -64 2368 -144
WIRE 2688 -64 2688 -144
WIRE 384 -16 384 -64
WIRE 896 48 896 16
WIRE 960 48 896 48
WIRE 1216 48 1216 16
WIRE 1216 48 1152 48
WIRE 1632 48 1632 16
WIRE 1696 48 1632 48
WIRE 1952 48 1952 16
WIRE 1952 48 1888 48
WIRE 2368 48 2368 16
WIRE 2432 48 2368 48
WIRE 2688 48 2688 16
WIRE 2688 48 2624 48
WIRE 896 80 896 48
WIRE 1216 80 1216 48
WIRE 1632 80 1632 48
WIRE 1952 80 1952 48
WIRE 2368 80 2368 48
WIRE 2688 80 2688 48
WIRE 848 128 800 128
WIRE 976 128 896 128
WIRE 1216 128 1136 128
WIRE 1312 128 1264 128
WIRE 1584 128 1536 128
WIRE 1712 128 1632 128
WIRE 1952 128 1872 128
WIRE 2320 128 2272 128
WIRE 2448 128 2368 128
WIRE 2688 128 2608 128
WIRE 2784 128 2736 128
WIRE 896 304 896 176
WIRE 976 304 976 128
WIRE 976 304 896 304
WIRE 1056 304 976 304
WIRE 1136 304 1136 128
WIRE 1136 304 1056 304
WIRE 1216 304 1216 176
WIRE 1216 304 1136 304
WIRE 1632 304 1632 176
WIRE 1712 304 1712 128
WIRE 1712 304 1632 304
WIRE 1792 304 1712 304
WIRE 1872 304 1872 128
WIRE 1872 304 1792 304
WIRE 1952 304 1952 176
WIRE 1952 304 1872 304
WIRE 2368 304 2368 176
WIRE 2448 304 2448 128
WIRE 2448 304 2368 304
WIRE 2528 304 2448 304
WIRE 2608 304 2608 128
WIRE 2608 304 2528 304
WIRE 2688 304 2688 176
WIRE 2688 304 2608 304
WIRE 1056 352 1056 304
WIRE 1792 352 1792 304
WIRE 2528 352 2528 304
WIRE 1056 480 1056 432
WIRE 1792 480 1792 432
WIRE 2528 480 2528 432
FLAG 384 -16 0
FLAG 384 -192 VDD
IOPIN 384 -192 Out
FLAG 1056 -208 VDD
IOPIN 1056 -208 In
FLAG 1056 480 0
FLAG 1056 304 Va
FLAG 960 48 Vo1
IOPIN 960 48 Out
FLAG 1152 48 Vo2
IOPIN 1152 48 Out
FLAG 1792 -208 VDD
IOPIN 1792 -208 In
FLAG 1792 480 0
FLAG 1792 304 Vb
FLAG 1696 48 Vo1_2
IOPIN 1696 48 Out
FLAG 1888 48 Vo2_2
IOPIN 1888 48 Out
FLAG 2528 -208 VDD
IOPIN 2528 -208 In
FLAG 2528 480 0
FLAG 2528 304 Vc
FLAG 2432 48 Vo1_3
IOPIN 2432 48 Out
FLAG 2624 48 Vo2_3
IOPIN 2624 48 Out
FLAG 1536 128 Vo2
IOPIN 1536 128 In
FLAG 2272 128 Vo2_2
IOPIN 2272 128 In
FLAG 800 128 Vo1_3
IOPIN 800 128 In
FLAG 2784 128 Vo1_2
IOPIN 2784 128 In
FLAG 2000 128 Vo1
IOPIN 2000 128 In
FLAG 1312 128 Vo2_3
IOPIN 1312 128 In
SYMBOL nmos_018 848 80 R0
SYMATTR InstName M1
SYMATTR Value2 l=L w=W m=1
SYMATTR SpiceLine ""
SYMATTR SpiceLine2 ""
SYMBOL nmos_018 1264 80 M0
SYMATTR InstName M2
SYMATTR Value2 l=L w=W m=1
SYMATTR SpiceLine ""
SYMATTR SpiceLine2 ""
SYMBOL voltage 384 -160 R0
WINDOW 123 0 0 Left 0
WINDOW 39 0 0 Left 0
SYMATTR InstName V1
SYMATTR Value 1.8
SYMBOL res 880 -80 R0
SYMATTR InstName R1
SYMATTR Value {R}
SYMBOL res 1200 -80 R0
SYMATTR InstName R2
SYMATTR Value {R}
SYMBOL current 1056 352 R0
WINDOW 123 0 0 Left 0
WINDOW 39 0 0 Left 0
SYMATTR InstName I1
SYMATTR Value 400µ
SYMBOL nmos_018 1584 80 R0
SYMATTR InstName M3
SYMATTR Value2 l=L w=W m=1
SYMATTR SpiceLine ""
SYMATTR SpiceLine2 ""
SYMBOL nmos_018 2000 80 M0
SYMATTR InstName M4
SYMATTR Value2 l=L w=W m=1
SYMATTR SpiceLine ""
SYMATTR SpiceLine2 ""
SYMBOL res 1616 -80 R0
SYMATTR InstName R3
SYMATTR Value {R}
SYMBOL res 1936 -80 R0
SYMATTR InstName R4
SYMATTR Value {R}
SYMBOL current 1792 352 R0
WINDOW 123 0 0 Left 0
WINDOW 39 0 0 Left 0
SYMATTR InstName I2
SYMATTR Value 400µ
SYMBOL nmos_018 2320 80 R0
SYMATTR InstName M5
SYMATTR Value2 l=L w=W m=1
SYMATTR SpiceLine ""
SYMATTR SpiceLine2 ""
SYMBOL nmos_018 2736 80 M0
SYMATTR InstName M6
SYMATTR Value2 l=L w=W m=1
SYMATTR SpiceLine ""
SYMATTR SpiceLine2 ""
SYMBOL res 2352 -80 R0
SYMATTR InstName R5
SYMATTR Value {R}
SYMBOL res 2672 -80 R0
SYMATTR InstName R6
SYMATTR Value {R}
SYMBOL current 2528 352 R0
WINDOW 123 0 0 Left 0
WINDOW 39 0 0 Left 0
SYMATTR InstName I3
SYMATTR Value 400µ
TEXT 0 0 Left 2 !.PARAM BR 5G
TEXT 0 -48 Left 2 ;Bit Rate Parameter:
TEXT 0 -120 Left 2 !.include tsmc018.lib
TEXT 0 632 Left 2 !.tran 0 {200/BR} 0 {0.01/BR}
TEXT 0 72 Left 2 !.param R=1.2K
TEXT 0 144 Left 2 !.param W=7.1u
TEXT 0 208 Left 2 !.PARAM L 0.18u
